mass 1 180.947880
pair_style hybrid/overlay soft 2.720 mliap model mliappy LATER descriptor ace coupling_coefficients.yace
Loading python model deferred.
pair_coeff * * soft 1.000000
pair_coeff * * mliap   Ta

thermo 10
velocity all create 1. 4928459 dist gaussian
Loading python model complete.
dump    r6 all xyz 1 dyn_6.xyz
velocity all create 800.0 4928459 loop geom
fix  a1  all nve
run 1000
Step          Temp          E_pair         E_mol          TotEng         Press
0   800            26.184681      0              31.665312      71342.07
Averages over the last 51 of 101 rows, steps 500 to 1000:
Temp E_pair E_mol TotEng Press
2431.8 15.2554 0 31.9152 62014.8
Loop time of 21.5337 on 1 procs for 1000 steps with 54 atoms

unfix  a1
min_style  cg
min_modify  dmax 0.5 line quadratic
dump    a6 all xyz 1 min_6.xyz
minimize 1e-12 1e-12 10000 100000
Step          Temp          E_pair         E_mol          TotEng         Press
1000   2595.6577      14.481001      0              32.263301      67034.815
Loop time of 1.997 on 1 procs for 23 steps with 54 atoms

Minimization stats:
  Stopping criterion = linesearch alpha is zero
  Energy initial, next-to-last, final =
  Force two-norm initial, final = 5.6190518 0.31470694
  Force max component initial, final = 1.1053186 0.079698497
  Final line search alpha, max atom move = 1.1920929e-07 9.5008012e-09
  Iterations, force evaluations = 23 92

write_data ./StructureDump/sample.6.dat
System init for write_data ...
variable etot equal etotal
variable ptot equal press
variable pairp equal epair
variable numat equal atoms
run 0
Step          Temp          E_pair         E_mol          TotEng         Press
1023   2595.6577      1.9770803      0              19.75938       16365.529
Loop time of 3.4401e-05 on 1 procs for 0 steps with 54 atoms
