mass 1 180.947880
pair_style hybrid/overlay soft 2.720 mliap model mliappy LATER descriptor ace coupling_coefficients.yace
Loading python model deferred.
pair_coeff * * soft 1.000000
pair_coeff * * mliap   Ta

thermo 10
velocity all create 1. 4928459 dist gaussian
Loading python model complete.
dump    r3 all xyz 1 dyn_3.xyz
velocity all create 800.0 4928459 loop geom
fix  a1  all nve
run 1000
Step          Temp          E_pair         E_mol          TotEng         Press
0   800            18.882233      0              23.535598      75539.312
Averages over the last 51 of 101 rows, steps 500 to 1000:
Temp E_pair E_mol TotEng Press
2334.64 10.4774 0 24.0573 55556.6
Loop time of 19.2197 on 1 procs for 1000 steps with 46 atoms

unfix  a1
min_style  cg
min_modify  dmax 0.5 line quadratic
dump    a3 all xyz 1 min_3.xyz
minimize 1e-12 1e-12 10000 100000
Step          Temp          E_pair         E_mol          TotEng         Press
1000   2331.4426      10.724771      0              24.286089      57587.741
Loop time of 1.39808 on 1 procs for 14 steps with 46 atoms

Minimization stats:
  Stopping criterion = linesearch alpha is zero
  Energy initial, next-to-last, final =
  Force two-norm initial, final = 5.0962289 0.40465715
  Force max component initial, final = 1.4106345 0.14476173
  Final line search alpha, max atom move = 5.9604645e-08 8.6284712e-09
  Iterations, force evaluations = 14 74

write_data ./StructureDump/sample.3.dat
System init for write_data ...
variable etot equal etotal
variable ptot equal press
variable pairp equal epair
variable numat equal atoms
run 0
Step          Temp          E_pair         E_mol          TotEng         Press
1014   2331.4426      2.2514078      0              15.812725      22502.385
Loop time of 2.2586e-05 on 1 procs for 0 steps with 46 atoms
