mass 1 180.947880
pair_style hybrid/overlay soft 2.720 mliap model mliappy LATER descriptor ace coupling_coefficients.yace
Loading python model deferred.
pair_coeff * * soft 1.000000
pair_coeff * * mliap   Ta

thermo 10
velocity all create 1. 4928459 dist gaussian
Loading python model complete.
dump    r5 all xyz 1 dyn_5.xyz
velocity all create 800.0 4928459 loop geom
fix  a1  all nve
run 1000
Step          Temp          E_pair         E_mol          TotEng         Press
0   800            18.642252      0              23.192209      60627.642
Averages over the last 51 of 101 rows, steps 500 to 1000:
Temp E_pair E_mol TotEng Press
2046 11.791 0 23.4275 55408
Loop time of 18.121 on 1 procs for 1000 steps with 45 atoms

unfix  a1
min_style  cg
min_modify  dmax 0.5 line quadratic
dump    a5 all xyz 1 min_5.xyz
minimize 1e-12 1e-12 10000 100000
Step          Temp          E_pair         E_mol          TotEng         Press
1000   1942.5557      12.436769      0              23.484951      57967.913
Loop time of 1.68472 on 1 procs for 24 steps with 45 atoms

Minimization stats:
  Stopping criterion = linesearch alpha is zero
  Energy initial, next-to-last, final =
  Force two-norm initial, final = 5.9931862 0.17944652
  Force max component initial, final = 1.4199119 0.045817756
  Final line search alpha, max atom move = 2.3841858e-07 1.0923804e-08
  Iterations, force evaluations = 24 92

write_data ./StructureDump/sample.5.dat
System init for write_data ...
variable etot equal etotal
variable ptot equal press
variable pairp equal epair
variable numat equal atoms
run 0
Step          Temp          E_pair         E_mol          TotEng         Press
1024   1942.5557      2.1034941      0              13.151676      7539.0894
Loop time of 2.03e-05 on 1 procs for 0 steps with 45 atoms
