mass 1 180.947880
pair_style hybrid/overlay soft 2.720 mliap model mliappy LATER descriptor ace coupling_coefficients.yace
Loading python model deferred.
pair_coeff * * soft 1.000000
pair_coeff * * mliap   Ta

thermo 10
velocity all create 1. 4928459 dist gaussian
Loading python model complete.
dump    r10 all xyz 1 dyn_10.xyz
velocity all create 800.0 4928459 loop geom
fix  a1  all nve
run 1000
Step          Temp          E_pair         E_mol          TotEng         Press
0   800            8.7318167      0              14.109039      43660.515
Averages over the last 51 of 101 rows, steps 500 to 1000:
Temp E_pair E_mol TotEng Press
1384.19 4.65708 0 13.961 37819.8
Loop time of 21.2548 on 1 procs for 1000 steps with 53 atoms

unfix  a1
min_style  cg
min_modify  dmax 0.5 line quadratic
dump    a10 all xyz 1 min_10.xyz
minimize 1e-12 1e-12 10000 100000
Step          Temp          E_pair         E_mol          TotEng         Press
1000   1379.6489      4.7351953      0              14.008543      39377.059
Loop time of 1.27633 on 1 procs for 7 steps with 53 atoms

Minimization stats:
  Stopping criterion = linesearch alpha is zero
  Energy initial, next-to-last, final =
  Force two-norm initial, final = 2.6900702 0.36042642
  Force max component initial, final = 0.9872476 0.11372006
  Final line search alpha, max atom move = 1.1920929e-07 1.3556487e-08
  Iterations, force evaluations = 7 59

write_data ./StructureDump/sample.10.dat
System init for write_data ...
variable etot equal etotal
variable ptot equal press
variable pairp equal epair
variable numat equal atoms
run 0
Step          Temp          E_pair         E_mol          TotEng         Press
1007   1379.6489      2.2411408      0              11.514489      23169.903
Loop time of 2.0223e-05 on 1 procs for 0 steps with 53 atoms
