mass 1 180.947880
pair_style hybrid/overlay soft 2.720 mliap model mliappy LATER descriptor ace coupling_coefficients.yace
Loading python model deferred.
pair_coeff * * soft 1.000000
pair_coeff * * mliap   Ta

thermo 10
velocity all create 1. 4928459 dist gaussian
Loading python model complete.
dump    r1 all xyz 1 dyn_1.xyz
velocity all create 800.0 4928459 loop geom
fix  a1  all nve
run 1000
Step          Temp          E_pair         E_mol          TotEng         Press
0   800            15.883619      0              22.708554      67120.53
Averages over the last 51 of 101 rows, steps 500 to 1000:
Temp E_pair E_mol TotEng Press
1640.32 8.18587 0 22.1797 48776.9
Loop time of 27.4122 on 1 procs for 1000 steps with 67 atoms

unfix  a1
min_style  cg
min_modify  dmax 0.5 line quadratic
dump    a1 all xyz 1 min_1.xyz
minimize 1e-12 1e-12 10000 100000
Step          Temp          E_pair         E_mol          TotEng         Press
1000   1573.7184      8.5900094      0              22.015668      49099.295
Loop time of 2.05589 on 1 procs for 13 steps with 67 atoms

Minimization stats:
  Stopping criterion = linesearch alpha is zero
  Energy initial, next-to-last, final =
  Force two-norm initial, final = 4.9497856 0.36743616
  Force max component initial, final = 1.266112 0.14701947
  Final line search alpha, max atom move = 5.9604645e-08 8.7630434e-09
  Iterations, force evaluations = 13 76

write_data ./StructureDump/sample.1.dat
System init for write_data ...
variable etot equal etotal
variable ptot equal press
variable pairp equal epair
variable numat equal atoms
run 0
Step          Temp          E_pair         E_mol          TotEng         Press
1013   1573.7184      2.6881488      0              16.113808      26043.031
Loop time of 1.8808e-05 on 1 procs for 0 steps with 67 atoms
