mass 1 180.947880
pair_style hybrid/overlay soft 2.720 mliap model mliappy LATER descriptor ace coupling_coefficients.yace
Loading python model deferred.
pair_coeff * * soft 1.000000
pair_coeff * * mliap   Ta

thermo 10
velocity all create 1. 4928459 dist gaussian
Loading python model complete.
dump    r8 all xyz 1 dyn_8.xyz
velocity all create 800.0 4928459 loop geom
fix  a1  all nve
run 1000
Step          Temp          E_pair         E_mol          TotEng         Press
0   800            29.337785      0              35.749088      70326.105
Averages over the last 51 of 101 rows, steps 500 to 1000:
Temp E_pair E_mol TotEng Press
2499.14 15.5531 0 35.5815 60806.4
Loop time of 24.206 on 1 procs for 1000 steps with 63 atoms

unfix  a1
min_style  cg
min_modify  dmax 0.5 line quadratic
dump    a8 all xyz 1 min_8.xyz
minimize 1e-12 1e-12 10000 100000
Step          Temp          E_pair         E_mol          TotEng         Press
1000   2653.9585      14.284935      0              35.5541        62170.513
Loop time of 1.66763 on 1 procs for 8 steps with 63 atoms

Minimization stats:
  Stopping criterion = linesearch alpha is zero
  Energy initial, next-to-last, final =
  Force two-norm initial, final = 6.3576696 0.87379733
  Force max component initial, final = 1.2626202 0.21900398
  Final line search alpha, max atom move = 1.4901161e-08 3.2634136e-09
  Iterations, force evaluations = 8 68

write_data ./StructureDump/sample.8.dat
System init for write_data ...
variable etot equal etotal
variable ptot equal press
variable pairp equal epair
variable numat equal atoms
run 0
Step          Temp          E_pair         E_mol          TotEng         Press
1008   2653.9585      2.9706526      0              24.239818      27014.548
Loop time of 2.0083e-05 on 1 procs for 0 steps with 63 atoms
