mass 1 180.947880
pair_style hybrid/overlay soft 2.720 mliap model mliappy LATER descriptor ace coupling_coefficients.yace
Loading python model deferred.
pair_coeff * * soft 1.000000
pair_coeff * * mliap   Ta

thermo 10
velocity all create 1. 4928459 dist gaussian
Loading python model complete.
dump    r9 all xyz 1 dyn_9.xyz
velocity all create 800.0 4928459 loop geom
fix  a1  all nve
run 1000
Step          Temp          E_pair         E_mol          TotEng         Press
0   800            19.18739       0              23.633939      64799.958
Averages over the last 51 of 101 rows, steps 500 to 1000:
Temp E_pair E_mol TotEng Press
2357.37 10.7303 0 23.833 56159.8
Loop time of 17.733 on 1 procs for 1000 steps with 44 atoms

unfix  a1
min_style  cg
min_modify  dmax 0.5 line quadratic
dump    a9 all xyz 1 min_9.xyz
minimize 1e-12 1e-12 10000 100000
Step          Temp          E_pair         E_mol          TotEng         Press
1000   2340.6508      10.920235      0              23.930008      55408.511
Loop time of 1.18361 on 1 procs for 11 steps with 44 atoms

Minimization stats:
  Stopping criterion = linesearch alpha is zero
  Energy initial, next-to-last, final =
  Force two-norm initial, final = 5.598852 0.40011293
  Force max component initial, final = 1.1823831 0.13707529
  Final line search alpha, max atom move = 1.1920929e-07 1.6340648e-08
  Iterations, force evaluations = 11 67

write_data ./StructureDump/sample.9.dat
System init for write_data ...
variable etot equal etotal
variable ptot equal press
variable pairp equal epair
variable numat equal atoms
run 0
Step          Temp          E_pair         E_mol          TotEng         Press
1011   2340.6508      2.1350967      0              15.14487       13921.916
Loop time of 1.9866e-05 on 1 procs for 0 steps with 44 atoms
