mass 1 180.947880
pair_style hybrid/overlay soft 2.720 mliap model mliappy LATER descriptor ace coupling_coefficients.yace
Loading python model deferred.
pair_coeff * * soft 1.000000
pair_coeff * * mliap   Ta

thermo 10
velocity all create 1. 4928459 dist gaussian
Loading python model complete.
dump    r2 all xyz 1 dyn_2.xyz
velocity all create 800.0 4928459 loop geom
fix  a1  all nve
run 1000
Step          Temp          E_pair         E_mol          TotEng         Press
0   800            13.383522      0              17.519847      68178.637
Averages over the last 51 of 101 rows, steps 500 to 1000:
Temp E_pair E_mol TotEng Press
2038.92 6.83156 0 17.3736 51606.8
Loop time of 17.5757 on 1 procs for 1000 steps with 41 atoms

unfix  a1
min_style  cg
min_modify  dmax 0.5 line quadratic
dump    a2 all xyz 1 min_2.xyz
minimize 1e-12 1e-12 10000 100000
Step          Temp          E_pair         E_mol          TotEng         Press
1000   2340.131       5.2733219      0              17.372749      47112.537
Loop time of 1.25585 on 1 procs for 10 steps with 41 atoms

Minimization stats:
  Stopping criterion = linesearch alpha is zero
  Energy initial, next-to-last, final =
  Force two-norm initial, final = 3.5230797 0.49124602
  Force max component initial, final = 1.2436057 0.22729689
  Final line search alpha, max atom move = 2.9802322e-08 6.7739753e-09
  Iterations, force evaluations = 10 71

write_data ./StructureDump/sample.2.dat
System init for write_data ...
variable etot equal etotal
variable ptot equal press
variable pairp equal epair
variable numat equal atoms
run 0
Step          Temp          E_pair         E_mol          TotEng         Press
1010   2340.131       2.1582389      0              14.257666      30838.432
Loop time of 2.0484e-05 on 1 procs for 0 steps with 41 atoms
