mass 1 180.947880
pair_style hybrid/overlay soft 2.720 mliap model mliappy LATER descriptor ace coupling_coefficients.yace
Loading python model deferred.
pair_coeff * * soft 1.000000
pair_coeff * * mliap   Ta

thermo 10
velocity all create 1. 4928459 dist gaussian
Loading python model complete.
dump    r4 all xyz 1 dyn_4.xyz
velocity all create 800.0 4928459 loop geom
fix  a1  all nve
run 1000
Step          Temp          E_pair         E_mol          TotEng         Press
0   800            16.834202      0              21.280751      60702.928
Averages over the last 51 of 101 rows, steps 500 to 1000:
Temp E_pair E_mol TotEng Press
2031.02 10.3057 0 21.5944 50948.4
Loop time of 17.901 on 1 procs for 1000 steps with 44 atoms

unfix  a1
min_style  cg
min_modify  dmax 0.5 line quadratic
dump    a4 all xyz 1 min_4.xyz
minimize 1e-12 1e-12 10000 100000
Step          Temp          E_pair         E_mol          TotEng         Press
1000   1909.385       10.775809      0              21.388526      52787.136
Loop time of 1.48677 on 1 procs for 17 steps with 44 atoms

Minimization stats:
  Stopping criterion = linesearch alpha is zero
  Energy initial, next-to-last, final =
  Force two-norm initial, final = 5.6345444 0.3042889
  Force max component initial, final = 1.2705892 0.077134226
  Final line search alpha, max atom move = 1.1920929e-07 9.1951163e-09
  Iterations, force evaluations = 17 82

write_data ./StructureDump/sample.4.dat
System init for write_data ...
variable etot equal etotal
variable ptot equal press
variable pairp equal epair
variable numat equal atoms
run 0
Step          Temp          E_pair         E_mol          TotEng         Press
1017   1909.385       1.8328046      0              12.445522      9260.3385
Loop time of 3.6198e-05 on 1 procs for 0 steps with 44 atoms
