mass 1 180.947880
pair_style hybrid/overlay soft 2.720 mliap model mliappy LATER descriptor ace coupling_coefficients.yace
Loading python model deferred.
pair_coeff * * soft 1.000000
pair_coeff * * mliap   Ta

thermo 10
velocity all create 1. 4928459 dist gaussian
Loading python model complete.
dump    r7 all xyz 1 dyn_7.xyz
velocity all create 800.0 4928459 loop geom
fix  a1  all nve
run 1000
Step          Temp          E_pair         E_mol          TotEng         Press
0   800            22.630853      0              28.525115      67529.083
Averages over the last 51 of 101 rows, steps 500 to 1000:
Temp E_pair E_mol TotEng Press
2180.81 11.8623 0 27.9302 56456.9
Loop time of 23.35 on 1 procs for 1000 steps with 58 atoms

unfix  a1
min_style  cg
min_modify  dmax 0.5 line quadratic
dump    a7 all xyz 1 min_7.xyz
minimize 1e-12 1e-12 10000 100000
Step          Temp          E_pair         E_mol          TotEng         Press
1000   2349.611       10.298331      0              27.609862      57067.085
Loop time of 1.50083 on 1 procs for 8 steps with 58 atoms

Minimization stats:
  Stopping criterion = linesearch alpha is zero
  Energy initial, next-to-last, final =
  Force two-norm initial, final = 5.6199262 0.72390897
  Force max component initial, final = 1.3103938 0.2106739
  Final line search alpha, max atom move = 2.9802322e-08 6.2785716e-09
  Iterations, force evaluations = 8 65

write_data ./StructureDump/sample.7.dat
System init for write_data ...
variable etot equal etotal
variable ptot equal press
variable pairp equal epair
variable numat equal atoms
run 0
Step          Temp          E_pair         E_mol          TotEng         Press
1008   2349.611       2.700531       0              20.012061      25843.878
Loop time of 1.918e-05 on 1 procs for 0 steps with 58 atoms
