mass 1 51.996100
pair_style hybrid/overlay soft 2.224 mliap model mliappy LATER descriptor ace coupling_coefficients.yace
Loading python model deferred.
pair_coeff * * soft 2.000000
pair_coeff * * mliap   Cr

thermo 10
velocity all create 1. 4928459 dist gaussian
Loading python model complete.
velocity all create 300.0 4928459 loop geom
fix  a1  all nve
run 100
Step          Temp          E_pair         E_mol          TotEng         Press
0   300           -13.911096      0             -13.872318     -1134472.5
Loop time of 0.849397 on 1 procs for 100 steps with 2 atoms

unfix  a1
min_style  cg
min_modify  dmax 0.000500 line backtrack
minimize 1e-12 1e-12 10000 100000
Step          Temp          E_pair         E_mol          TotEng         Press
100   5146.2376     -17.978653      0             -17.313449     -2140108.4
Averages over the last 51 of 102 rows, steps 610 to 1108:
Temp E_pair E_mol TotEng Press
5146.24 -18.2409 0 -17.5757 -2.18218e+06
Loop time of 9.12774 on 1 procs for 1008 steps with 2 atoms

Minimization stats:
  Stopping criterion = linesearch alpha is zero
  Energy initial, next-to-last, final =
  Force two-norm initial, final = 0.73891955 0.0026475425
  Force max component initial, final = 0.44136508 0.0017238229
  Final line search alpha, max atom move = 0.0011330195 1.953125e-06
  Iterations, force evaluations = 1008 1018

write_data ./StructureDump/sample.10.dat
System init for write_data ...
variable etot equal etotal
variable ptot equal press
variable pairp equal epair
variable numat equal atoms
run 0
Step          Temp          E_pair         E_mol          TotEng         Press
1108   5146.2376     -18.257257      0             -17.592054     -2168608.5
Loop time of 2.1706e-05 on 1 procs for 0 steps with 2 atoms
