mass 1 51.996100
mass 2 55.845000
pair_style hybrid/overlay soft 2.224 mliap model mliappy LATER descriptor ace coupling_coefficients.yace
Loading python model deferred.
pair_coeff * * soft 2.000000
pair_coeff * * mliap   Cr Fe

thermo 10
velocity all create 1. 4928459 dist gaussian
Loading python model complete.
velocity all create 300.0 4928459 loop geom
fix  a1  all nve
run 100
Step          Temp          E_pair         E_mol          TotEng         Press
0   300           -13.338122      0             -13.18301      -382993.82
Loop time of 1.81946 on 1 procs for 100 steps with 5 atoms

unfix  a1
min_style  cg
min_modify  dmax 0.000500 line backtrack
minimize 1e-12 1e-12 10000 100000
Step          Temp          E_pair         E_mol          TotEng         Press
100   781.6269      -14.682043      0             -14.27791      -523652.31
Averages over the last 145 of 290 rows, steps 1550 to 2989:
Temp E_pair E_mol TotEng Press
781.627 -16.1107 0 -15.7065 -556915
Loop time of 55.5231 on 1 procs for 2889 steps with 5 atoms

Minimization stats:
  Stopping criterion = linesearch alpha is zero
  Energy initial, next-to-last, final =
  Force two-norm initial, final = 2.1041828 0.2801588
  Force max component initial, final = 1.1489053 0.16406461
  Final line search alpha, max atom move = 1.726707e-07 2.8329152e-08
  Iterations, force evaluations = 2889 2903

write_data ./StructureDump/sample.75.dat
System init for write_data ...
variable etot equal etotal
variable ptot equal press
variable pairp equal epair
variable numat equal atoms
run 0
Step          Temp          E_pair         E_mol          TotEng         Press
2989   781.6269      -16.163214      0             -15.759081     -553439.36
Loop time of 1.9222e-05 on 1 procs for 0 steps with 5 atoms
