mass 1 51.996100
mass 2 55.845000
pair_style hybrid/overlay soft 2.224 mliap model mliappy LATER descriptor ace coupling_coefficients.yace
Loading python model deferred.
pair_coeff * * soft 2.000000
pair_coeff * * mliap   Cr Fe

thermo 10
velocity all create 1. 4928459 dist gaussian
Loading python model complete.
velocity all create 300.0 4928459 loop geom
fix  a1  all nve
run 10
Step          Temp          E_pair         E_mol          TotEng         Press
0   300           -11.982392      0             -11.866058     -312695.38
Loop time of 0.149468 on 1 procs for 10 steps with 4 atoms

unfix  a1
min_style  cg
min_modify  dmax 0.000500 line backtrack
minimize 1e-12 1e-12 10000 100000
Step          Temp          E_pair         E_mol          TotEng         Press
10   333.63565     -11.974799      0             -11.845422     -317571.65
Averages over the last 55 of 110 rows, steps 560 to 1093:
Temp E_pair E_mol TotEng Press
333.636 -12.1112 0 -11.9818 -339019
Loop time of 16.7209 on 1 procs for 1083 steps with 4 atoms

Minimization stats:
  Stopping criterion = linesearch alpha is zero
  Energy initial, next-to-last, final =
  Force two-norm initial, final = 0.29950932 0.069723574
  Force max component initial, final = 0.15580022 0.035471308
  Final line search alpha, max atom move = 1.720683e-06 6.1034877e-08
  Iterations, force evaluations = 1083 1116

write_data ./StructureDump/sample.54.dat
System init for write_data ...
variable etot equal etotal
variable ptot equal press
variable pairp equal epair
variable numat equal atoms
run 0
Step          Temp          E_pair         E_mol          TotEng         Press
1093   333.63565     -12.14941       0             -12.020032     -346828.08
Loop time of 1.9168e-05 on 1 procs for 0 steps with 4 atoms
