mass 1 51.996100
mass 2 55.845000
pair_style hybrid/overlay soft 2.224 mliap model mliappy LATER descriptor ace coupling_coefficients.yace
Loading python model deferred.
pair_coeff * * soft 2.000000
pair_coeff * * mliap   Cr Fe

thermo 10
velocity all create 1. 4928459 dist gaussian
Loading python model complete.
velocity all create 300.0 4928459 loop geom
fix  a1  all nve
run 10
Step          Temp          E_pair         E_mol          TotEng         Press
0   300           -10.342499      0             -10.148609     -171726.48
Loop time of 0.206743 on 1 procs for 10 steps with 6 atoms

unfix  a1
min_style  cg
min_modify  dmax 0.000500 line backtrack
minimize 1e-12 1e-12 10000 100000
Step          Temp          E_pair         E_mol          TotEng         Press
10   326.95784     -10.571344      0             -10.360031     -189216.86
Averages over the last 63 of 125 rows, steps 630 to 1245:
Temp E_pair E_mol TotEng Press
326.958 -10.8437 0 -10.6324 -196932
Loop time of 27.1956 on 1 procs for 1235 steps with 6 atoms

Minimization stats:
  Stopping criterion = linesearch alpha is zero
  Energy initial, next-to-last, final =
  Force two-norm initial, final = 0.43413122 0.13297189
  Force max component initial, final = 0.31876324 0.069905001
  Final line search alpha, max atom move = 4.3655787e-07 3.0517578e-08
  Iterations, force evaluations = 1235 1277

write_data ./StructureDump/sample.183.dat
System init for write_data ...
variable etot equal etotal
variable ptot equal press
variable pairp equal epair
variable numat equal atoms
run 0
Step          Temp          E_pair         E_mol          TotEng         Press
1245   326.95784     -10.919857      0             -10.708544     -193010.41
Loop time of 1.8721e-05 on 1 procs for 0 steps with 6 atoms
