mass 1 51.996100
mass 2 55.845000
pair_style hybrid/overlay soft 2.224 mliap model mliappy LATER descriptor ace coupling_coefficients.yace
Loading python model deferred.
pair_coeff * * soft 2.000000
pair_coeff * * mliap   Cr Fe

thermo 10
velocity all create 1. 4928459 dist gaussian
Loading python model complete.
velocity all create 300.0 4928459 loop geom
fix  a1  all nve
run 100
Step          Temp          E_pair         E_mol          TotEng         Press
0   300           -10.526587      0             -10.332697     -188298.44
Loop time of 2.04356 on 1 procs for 100 steps with 6 atoms

unfix  a1
min_style  cg
min_modify  dmax 0.000500 line backtrack
minimize 1e-12 1e-12 10000 100000
Step          Temp          E_pair         E_mol          TotEng         Press
100   421.3949      -10.616605      0             -10.344257     -167120.05
Averages over the last 67 of 133 rows, steps 760 to 1412:
Temp E_pair E_mol TotEng Press
421.395 -10.8922 0 -10.6199 -191968
Loop time of 28.1947 on 1 procs for 1312 steps with 6 atoms

Minimization stats:
  Stopping criterion = linesearch alpha is zero
  Energy initial, next-to-last, final =
  Force two-norm initial, final = 1.5295183 0.0015685201
  Force max component initial, final = 0.72073734 0.00077671136
  Final line search alpha, max atom move = 0.005029217 3.90625e-06
  Iterations, force evaluations = 1312 1327

write_data ./StructureDump/sample.55.dat
System init for write_data ...
variable etot equal etotal
variable ptot equal press
variable pairp equal epair
variable numat equal atoms
run 0
Step          Temp          E_pair         E_mol          TotEng         Press
1412   421.3949      -10.902153      0             -10.629805     -188376.81
Loop time of 1.9665e-05 on 1 procs for 0 steps with 6 atoms
